task=4 , cmd =  ElmerSolver_mpi 
task=2 , cmd =  ElmerSolver_mpi 
task=3 , cmd =  ElmerSolver_mpi 
task=8 , cmd =  ElmerSolver_mpi 
task=5 , cmd =  ElmerSolver_mpi 
task=7 , cmd =  ElmerSolver_mpi 
task=14 , cmd =  ElmerSolver_mpi 
task=19 , cmd =  ElmerSolver_mpi 
task=1 , cmd =  ElmerSolver_mpi 
task=12 , cmd =  ElmerSolver_mpi 
task=10 , cmd =  ElmerSolver_mpi 
task=15 , cmd =  ElmerSolver_mpi 
task=6 , cmd =  ElmerSolver_mpi 
task=11 , cmd =  ElmerSolver_mpi 
task=9 , cmd =  ElmerSolver_mpi 
task=13 , cmd =  ElmerSolver_mpi 
task=18 , cmd =  ElmerSolver_mpi 
task=17 , cmd =  ElmerSolver_mpi 
task=16 , cmd =  ElmerSolver_mpi 
task=20 , cmd =  ElmerSolver_mpi 
task=22 , cmd =  ElmerSolver_mpi 
task=23 , cmd =  ElmerSolver_mpi 
task=21 , cmd =  ElmerSolver_mpi 
task=24 , cmd =  ElmerSolver_mpi 
task=25 , cmd =  ElmerSolver_mpi 
task=26 , cmd =  ElmerSolver_mpi 
task=27 , cmd =  ElmerSolver_mpi 
task=28 , cmd =  ElmerSolver_mpi 
task=30 , cmd =  ElmerSolver_mpi 
task=31 , cmd =  ElmerSolver_mpi 
task=29 , cmd =  ElmerSolver_mpi 
task=33 , cmd =  ElmerSolver_mpi 
task=34 , cmd =  ElmerSolver_mpi 
task=35 , cmd =  ElmerSolver_mpi 
task=32 , cmd =  ElmerSolver_mpi 
task=36 , cmd =  ElmerSolver_mpi 
task=37 , cmd =  ElmerSolver_mpi 
task=38 , cmd =  ElmerSolver_mpi 
task=39 , cmd =  ElmerSolver_mpi 
task=41 , cmd =  ElmerSolver_mpi 
task=43 , cmd =  ElmerSolver_mpi 
task=40 , cmd =  ElmerSolver_mpi 
task=42 , cmd =  ElmerSolver_mpi 
task=48 , cmd =  ./xios_server.exe 
task=44 , cmd =  ElmerSolver_mpi 
task=45 , cmd =  ElmerSolver_mpi 
task=46 , cmd =  ElmerSolver_mpi 
task=47 , cmd =  ElmerSolver_mpi 
task=0 , cmd =  ElmerSolver_mpi 
ELMER SOLVER (v 9.0) STARTED AT: 2022/07/12 17:39:24
ELMER SOLVER (v 9.0) STARTED AT: 2022/07/12 17:39:24
ELMER SOLVER (v 9.0) STARTED AT: 2022/07/12 17:39:24
ELMER SOLVER (v 9.0) STARTED AT: 2022/07/12 17:39:24
ELMER SOLVER (v 9.0) STARTED AT: 2022/07/12 17:39:24
ELMER SOLVER (v 9.0) STARTED AT: 2022/07/12 17:39:24
ELMER SOLVER (v 9.0) STARTED AT: 2022/07/12 17:39:24
ELMER SOLVER (v 9.0) STARTED AT: 2022/07/12 17:39:24
ELMER SOLVER (v 9.0) STARTED AT: 2022/07/12 17:39:24
ELMER SOLVER (v 9.0) STARTED AT: 2022/07/12 17:39:24
ELMER SOLVER (v 9.0) STARTED AT: 2022/07/12 17:39:24
ELMER SOLVER (v 9.0) STARTED AT: 2022/07/12 17:39:24
ELMER SOLVER (v 9.0) STARTED AT: 2022/07/12 17:39:24
ELMER SOLVER (v 9.0) STARTED AT: 2022/07/12 17:39:24
ELMER SOLVER (v 9.0) STARTED AT: 2022/07/12 17:39:24
ELMER SOLVER (v 9.0) STARTED AT: 2022/07/12 17:39:24
ELMER SOLVER (v 9.0) STARTED AT: 2022/07/12 17:39:24
ELMER SOLVER (v 9.0) STARTED AT: 2022/07/12 17:39:24
ELMER SOLVER (v 9.0) STARTED AT: 2022/07/12 17:39:24
ELMER SOLVER (v 9.0) STARTED AT: 2022/07/12 17:39:24
ELMER SOLVER (v 9.0) STARTED AT: 2022/07/12 17:39:24
ELMER SOLVER (v 9.0) STARTED AT: 2022/07/12 17:39:24
ELMER SOLVER (v 9.0) STARTED AT: 2022/07/12 17:39:24
ELMER SOLVER (v 9.0) STARTED AT: 2022/07/12 17:39:24
ELMER SOLVER (v 9.0) STARTED AT: 2022/07/12 17:39:24
ELMER SOLVER (v 9.0) STARTED AT: 2022/07/12 17:39:24
ELMER SOLVER (v 9.0) STARTED AT: 2022/07/12 17:39:24
ELMER SOLVER (v 9.0) STARTED AT: 2022/07/12 17:39:24
ELMER SOLVER (v 9.0) STARTED AT: 2022/07/12 17:39:24
ELMER SOLVER (v 9.0) STARTED AT: 2022/07/12 17:39:24
ELMER SOLVER (v 9.0) STARTED AT: 2022/07/12 17:39:24
ELMER SOLVER (v 9.0) STARTED AT: 2022/07/12 17:39:24
ELMER SOLVER (v 9.0) STARTED AT: 2022/07/12 17:39:24
ELMER SOLVER (v 9.0) STARTED AT: 2022/07/12 17:39:24
ELMER SOLVER (v 9.0) STARTED AT: 2022/07/12 17:39:24
ELMER SOLVER (v 9.0) STARTED AT: 2022/07/12 17:39:24
ELMER SOLVER (v 9.0) STARTED AT: 2022/07/12 17:39:24
ELMER SOLVER (v 9.0) STARTED AT: 2022/07/12 17:39:24
ELMER SOLVER (v 9.0) STARTED AT: 2022/07/12 17:39:24
ELMER SOLVER (v 9.0) STARTED AT: 2022/07/12 17:39:24
ELMER SOLVER (v 9.0) STARTED AT: 2022/07/12 17:39:24
ELMER SOLVER (v 9.0) STARTED AT: 2022/07/12 17:39:24
ELMER SOLVER (v 9.0) STARTED AT: 2022/07/12 17:39:24
ELMER SOLVER (v 9.0) STARTED AT: 2022/07/12 17:39:24
ELMER SOLVER (v 9.0) STARTED AT: 2022/07/12 17:39:24
ELMER SOLVER (v 9.0) STARTED AT: 2022/07/12 17:39:24
ELMER SOLVER (v 9.0) STARTED AT: 2022/07/12 17:39:24
ELMER SOLVER (v 9.0) STARTED AT: 2022/07/12 17:39:24
-> info : intercommCreate::server (classical mode) 48 intraCommSize : 1 intraCommRank :0  clientLeader 0
-> info : intercommCreate::client 2 intraCommSize : 48 intraCommRank :2  clientLeader 48
-> info : intercommCreate::client 4 intraCommSize : 48 intraCommRank :4  clientLeader 48
-> info : intercommCreate::client 25 intraCommSize : 48 intraCommRank :25  clientLeader 48
-> info : intercommCreate::client 30 intraCommSize : 48 intraCommRank :30  clientLeader 48
-> info : intercommCreate::client 33 intraCommSize : 48 intraCommRank :33  clientLeader 48
-> info : intercommCreate::client 38 intraCommSize : 48 intraCommRank :38  clientLeader 48
-> info : intercommCreate::client 40 intraCommSize : 48 intraCommRank :40  clientLeader 48
-> info : intercommCreate::client 46 intraCommSize : 48 intraCommRank :46  clientLeader 48
-> info : intercommCreate::client 1 intraCommSize : 48 intraCommRank :1  clientLeader 48
-> info : intercommCreate::client 6 intraCommSize : 48 intraCommRank :6  clientLeader 48
-> info : intercommCreate::client 7 intraCommSize : 48 intraCommRank :7  clientLeader 48
-> info : intercommCreate::client 0 intraCommSize : 48 intraCommRank :0  clientLeader 48
-> info : intercommCreate::client 3 intraCommSize : 48 intraCommRank :3  clientLeader 48
-> info : intercommCreate::client 5 intraCommSize : 48 intraCommRank :5  clientLeader 48
-> info : intercommCreate::client 8 intraCommSize : 48 intraCommRank :8  clientLeader 48
-> info : intercommCreate::client 9 intraCommSize : 48 intraCommRank :9  clientLeader 48
-> info : intercommCreate::client 10 intraCommSize : 48 intraCommRank :10  clientLeader 48
-> info : intercommCreate::client 24 intraCommSize : 48 intraCommRank :24  clientLeader 48
-> info : intercommCreate::client 27 intraCommSize : 48 intraCommRank :27  clientLeader 48
-> info : intercommCreate::client 36 intraCommSize : 48 intraCommRank :36  clientLeader 48
-> info : intercommCreate::client 39 intraCommSize : 48 intraCommRank :39  clientLeader 48
-> info : intercommCreate::client 11 intraCommSize : 48 intraCommRank :11  clientLeader 48
-> info : intercommCreate::client 12 intraCommSize : 48 intraCommRank :12  clientLeader 48
-> info : intercommCreate::client 13 intraCommSize : 48 intraCommRank :13  clientLeader 48
-> info : intercommCreate::client 15 intraCommSize : 48 intraCommRank :15  clientLeader 48
-> info : intercommCreate::client 17 intraCommSize : 48 intraCommRank :17  clientLeader 48
-> info : intercommCreate::client 20 intraCommSize : 48 intraCommRank :20  clientLeader 48
-> info : intercommCreate::client 21 intraCommSize : 48 intraCommRank :21  clientLeader 48
-> info : intercommCreate::client 22 intraCommSize : 48 intraCommRank :22  clientLeader 48
-> info : intercommCreate::client 26 intraCommSize : 48 intraCommRank :26  clientLeader 48
-> info : intercommCreate::client 32 intraCommSize : 48 intraCommRank :32  clientLeader 48
-> info : intercommCreate::client 34 intraCommSize : 48 intraCommRank :34  clientLeader 48
-> info : intercommCreate::client 35 intraCommSize : 48 intraCommRank :35  clientLeader 48
-> info : intercommCreate::client 37 intraCommSize : 48 intraCommRank :37  clientLeader 48
-> info : intercommCreate::client 41 intraCommSize : 48 intraCommRank :41  clientLeader 48
-> info : intercommCreate::client 42 intraCommSize : 48 intraCommRank :42  clientLeader 48
-> info : intercommCreate::client 43 intraCommSize : 48 intraCommRank :43  clientLeader 48
-> info : intercommCreate::client 44 intraCommSize : 48 intraCommRank :44  clientLeader 48
-> info : intercommCreate::client 47 intraCommSize : 48 intraCommRank :47  clientLeader 48
-> info : intercommCreate::client 14 intraCommSize : 48 intraCommRank :14  clientLeader 48
-> info : intercommCreate::client 16 intraCommSize : 48 intraCommRank :16  clientLeader 48
-> info : intercommCreate::client 18 intraCommSize : 48 intraCommRank :18  clientLeader 48
-> info : intercommCreate::client 19 intraCommSize : 48 intraCommRank :19  clientLeader 48
-> info : intercommCreate::client 23 intraCommSize : 48 intraCommRank :23  clientLeader 48
-> info : intercommCreate::client 28 intraCommSize : 48 intraCommRank :28  clientLeader 48
-> info : intercommCreate::client 29 intraCommSize : 48 intraCommRank :29  clientLeader 48
-> info : intercommCreate::client 31 intraCommSize : 48 intraCommRank :31  clientLeader 48
-> info : intercommCreate::client 45 intraCommSize : 48 intraCommRank :45  clientLeader 48
ParCommInit:  Initialize #PEs:           48
ParCommInit:  Initialize #PEs:           48
ParCommInit:  Initialize #PEs:           48
ParCommInit:  Initialize #PEs:           48
ParCommInit:  Initialize #PEs:           48
ParCommInit:  Initialize #PEs:           48
ParCommInit:  Initialize #PEs:           48
ParCommInit:  Initialize #PEs:           48
ParCommInit:  Initialize #PEs:           48
ParCommInit:  Initialize #PEs:           48
ParCommInit:  Initialize #PEs:           48
ParCommInit:  Initialize #PEs:           48
ParCommInit:  Initialize #PEs:           48
ParCommInit:  Initialize #PEs:           48
ParCommInit:  Initialize #PEs:           48
ParCommInit:  Initialize #PEs:           48
ParCommInit:  Initialize #PEs:           48
ParCommInit:  Initialize #PEs:           48
ParCommInit:  Initialize #PEs:           48
ParCommInit:  Initialize #PEs:           48
ParCommInit:  Initialize #PEs:           48
ParCommInit:  Initialize #PEs:           48
ParCommInit:  Initialize #PEs:           48
ParCommInit:  Initialize #PEs:           48
ParCommInit:  Initialize #PEs:           48
ParCommInit:  Initialize #PEs:           48
ParCommInit:  Initialize #PEs:           48
ParCommInit:  Initialize #PEs:           48
ParCommInit:  Initialize #PEs:           48
ParCommInit:  Initialize #PEs:           48
ParCommInit:  Initialize #PEs:           48
ParCommInit:  Initialize #PEs:           48
ParCommInit:  Initialize #PEs:           48
ParCommInit:  Initialize #PEs:           48
ParCommInit:  Initialize #PEs:           48
ParCommInit:  Initialize #PEs:           48
ParCommInit:  Initialize #PEs:           48
ParCommInit:  Initialize #PEs:           48
ParCommInit:  Initialize #PEs:           48
ParCommInit:  Initialize #PEs:           48
ParCommInit:  Initialize #PEs:           48
ParCommInit:  Initialize #PEs:           48
ParCommInit:  Initialize #PEs:           48
ParCommInit:  Initialize #PEs:           48
ParCommInit:  Initialize #PEs:           48
ParCommInit:  Initialize #PEs:           48
ParCommInit:  Initialize #PEs:           48
ParCommInit:  Initialize #PEs:           48
MAIN: 
MAIN: =============================================================
MAIN: ElmerSolver finite element software, Welcome!
MAIN: This program is free software licensed under (L)GPL
MAIN: Copyright 1st April 1995 - , CSC - IT Center for Science Ltd.
MAIN: Webpage http://www.csc.fi/elmer, Email elmeradm@csc.fi
MAIN: Version: 9.0 (Rev: bfd923fb, Compiled: 2022-06-26)
MAIN:  Running in parallel using 48 tasks.
MAIN:  Running with just one thread per task.
MAIN:  HYPRE library linked in.
MAIN:  MUMPS library linked in.
MAIN:  MMG library linked in.
MAIN:  Lua interpreter linked in.
MAIN: =============================================================
OpenIncludeFile: Trying to include file: add_var_to_rst.param
OpenIncludeFile: Trying to include file: add_var_to_rst.incf
MAIN: 
MAIN: 
MAIN: -------------------------------------
MAIN: Reading Model: add_var_to_rst.sif
LoadInputFile: Scanning input file: add_var_to_rst.sif
LoadInputFile: Scanning only size info
LoadInputFile: First time visiting
LoadInputFile: Reading base load of sif file
OpenIncludeFile: Trying to include file: add_var_to_rst.param
OpenIncludeFile: Trying to include file: add_var_to_rst.incf
LoadInputFile: Loading input file: add_var_to_rst.sif
LoadInputFile: Reading base load of sif file
OpenIncludeFile: Trying to include file: add_var_to_rst.param
OpenIncludeFile: Trying to include file: add_var_to_rst.incf
CheckKeyword:  Unlisted keyword: [sea level] in section: [constants]
CheckKeyword:  Unlisted keyword: [water density] in section: [constants]
CheckKeyword:  Unlisted keyword: [sea water specific heat] in section: [constants]
CheckKeyword:  Unlisted keyword: [ice density] in section: [constants]
CheckKeyword:  Unlisted keyword: [projection type] in section: [simulation]
CheckKeyword:  Unlisted keyword: [central_meridian] in section: [simulation]
CheckKeyword:  Unlisted keyword: [latitude_of_origin] in section: [simulation]
CheckKeyword:  Unlisted keyword: [mueta2] in section: [body force 1]
Loading user function library: [USF_SSAViscosity]...[SSAViscosity]
CheckKeyword:  Unlisted keyword: [ssa mean density] in section: [material 1]
CheckKeyword:  Unlisted keyword: [file name] in section: [solver 1]
CheckKeyword:  Unlisted keyword: [time point] in section: [solver 1]
CheckKeyword:  Unlisted keyword: [variable name 1] in section: [solver 1]
CheckKeyword:  Unlisted keyword: [variable name 2] in section: [solver 1]
CheckKeyword:  Unlisted keyword: [variable name 3] in section: [solver 1]
CheckKeyword:  Unlisted keyword: [variable name 4] in section: [solver 1]
CheckKeyword:  Unlisted keyword: [variable name 5] in section: [solver 1]
CheckKeyword:  Unlisted keyword: [variable name 6] in section: [solver 1]
CheckKeyword:  Unlisted keyword: [variable name 7] in section: [solver 1]
CheckKeyword:  Unlisted keyword: [file name] in section: [solver 2]
CheckKeyword:  Unlisted keyword: [variable name 1] in section: [solver 2]
CheckKeyword:  Unlisted keyword: [bounding box dx] in section: [solver 3]
CheckKeyword:  Unlisted keyword: [variable 1 data file] in section: [solver 3]
CheckKeyword:  Unlisted keyword: [variable 1 method] in section: [solver 3]
CheckKeyword:  Unlisted keyword: [gl integration points number] in section: [solver 4]
CheckKeyword:  Unlisted keyword: [variable 1 data file] in section: [solver 5]
CheckKeyword:  Unlisted keyword: [time_units] in section: [solver 7]
CheckKeyword:  Unlisted keyword: [timestep] in section: [solver 7]
CheckKeyword:  Unlisted keyword: [timestep tolerance] in section: [solver 7]
CheckKeyword:  Unlisted keyword: [reference date] in section: [solver 7]
CheckKeyword:  Unlisted keyword: [file names suffix] in section: [solver 7]
CheckKeyword:  Unlisted keyword: [scalar field 1 compute cell average] in section: [solver 7]
CheckKeyword:  Unlisted keyword: [scalar field 2 compute cell average] in section: [solver 7]
CheckKeyword:  Unlisted keyword: [scalar field 3 compute cell average] in section: [solver 7]
CheckKeyword:  Unlisted keyword: [scalar field 4 compute cell average] in section: [solver 7]
CheckKeyword:  Unlisted keyword: [scalar field 5 compute cell average] in section: [solver 7]
CheckKeyword:  Unlisted keyword: [global variable 1] in section: [solver 7]
CheckKeyword:  Unlisted keyword: [solver info level] in section: [solver 7]
CheckKeyword:  Unlisted keyword: [calving front] in section: [boundary condition 1]
LoadInputFile: Number of BCs: 1
LoadInputFile: Number of Body Forces: 1
LoadInputFile: Number of Initial Conditions: 0
LoadInputFile: Number of Materials: 1
LoadInputFile: Number of Equations: 1
LoadInputFile: Number of Solvers: 7
LoadInputFile: Number of Bodies: 1
ListTagKeywords: Setting weight for keywords!
ListTagKeywords: No parameters width suffix: normalize by area
ListTagKeywords: Setting weight for keywords!
ListTagKeywords: No parameters width suffix: normalize by volume
ElmerAsciiMesh: Base mesh name: ./MSH
MAIN: -------------------------------------
OptimizeBandwidth: ---------------------------------------------------------
Computing matrix structure for: ugriddatareader_restart...done.
OptimizeBandwidth: Half bandwidth without optimization: 11739
OptimizeBandwidth: ---------------------------------------------------------
OptimizeBandwidth: ---------------------------------------------------------
Computing matrix structure for: ugriddatareader_cellarea...done.
OptimizeBandwidth: Half bandwidth without optimization: 11739
OptimizeBandwidth: ---------------------------------------------------------
OptimizeBandwidth: ---------------------------------------------------------
Computing matrix structure for: scatteredinter...done.
OptimizeBandwidth: Half bandwidth without optimization: 11739
OptimizeBandwidth: 
Bandwidth Optimization ...done.
OptimizeBandwidth: Half bandwidth after optimization: 411
OptimizeBandwidth: ---------------------------------------------------------
Flotation: Bottom Surface Name not found - using default Zb
Flotation: Top Surface Name not found - using default Zs
Flotation: Thickness Variable Name not found - using default H
OptimizeBandwidth: ---------------------------------------------------------
Computing matrix structure for: flotation...done.
OptimizeBandwidth: Half bandwidth without optimization: 11739
OptimizeBandwidth: 
Bandwidth Optimization ...done.
OptimizeBandwidth: Half bandwidth after optimization: 411
OptimizeBandwidth: ---------------------------------------------------------
OptimizeBandwidth: ---------------------------------------------------------
Computing matrix structure for: point...done.
OptimizeBandwidth: Half bandwidth without optimization: 11739
OptimizeBandwidth: 
Bandwidth Optimization ...done.
OptimizeBandwidth: Half bandwidth after optimization: 411
OptimizeBandwidth: ---------------------------------------------------------
UpdateExport_init: -----------------------------
UpdateExport_init:  Initialization
UpdateExport_init: -----------------------------
OptimizeBandwidth: ---------------------------------------------------------
Computing matrix structure for: update...done.
OptimizeBandwidth: Half bandwidth without optimization: 11739
OptimizeBandwidth: ---------------------------------------------------------
OptimizeBandwidth: ---------------------------------------------------------
Computing matrix structure for: xiosoutputsolve...done.
OptimizeBandwidth: Half bandwidth without optimization: 11739
OptimizeBandwidth: ---------------------------------------------------------
ElmerSolver: Number of timesteps to be saved: 1
UGRIDDataReader: File name: /ccc/work/cont003/gen6066/gen6066/ISMIP6/ISMIP6_ANT//RST_simplified2/NEWMESH.result.nc
UGRIDDataReader: h ndims: 2
UGRIDDataReader: h dimension: 561771
UGRIDDataReader: h, reading time step: 1
UGRIDDataReader: File name: /ccc/work/cont003/gen6066/gen6066/ISMIP6/ISMIP6_ANT//RST_simplified2/NEWMESH.result.nc
UGRIDDataReader: zs ndims: 2
UGRIDDataReader: zs dimension: 561771
UGRIDDataReader: zs, reading time step: 1
UGRIDDataReader: File name: /ccc/work/cont003/gen6066/gen6066/ISMIP6/ISMIP6_ANT//RST_simplified2/NEWMESH.result.nc
UGRIDDataReader: zb ndims: 2
UGRIDDataReader: zb dimension: 561771
UGRIDDataReader: zb, reading time step: 1
UGRIDDataReader: File name: /ccc/work/cont003/gen6066/gen6066/ISMIP6/ISMIP6_ANT//RST_simplified2/NEWMESH.result.nc
UGRIDDataReader: bedrock ndims: 1
UGRIDDataReader: bedrock dimension: 561771
UGRIDDataReader: reading constant var bedrock
UGRIDDataReader: File name: /ccc/work/cont003/gen6066/gen6066/ISMIP6/ISMIP6_ANT//RST_simplified2/NEWMESH.result.nc
UGRIDDataReader: mu ndims: 1
UGRIDDataReader: mu dimension: 561771
UGRIDDataReader: reading constant var mu
UGRIDDataReader: File name: /ccc/work/cont003/gen6066/gen6066/ISMIP6/ISMIP6_ANT//RST_simplified2/NEWMESH.result.nc
UGRIDDataReader: eta ndims: 2
UGRIDDataReader: eta dimension: 561771
UGRIDDataReader: eta, reading time step: 1
UGRIDDataReader: File name: /ccc/work/cont003/gen6066/gen6066/ISMIP6/ISMIP6_ANT//RST_simplified2/NEWMESH.result.nc
UGRIDDataReader: beta ndims: 2
UGRIDDataReader: beta dimension: 561771
UGRIDDataReader: beta, reading time step: 1
UGRIDDataReader: File name: /ccc/work/cont003/gen6066/gen6066/ISMIP6/ISMIP6_ANT//true_cell_area.nc
UGRIDDataReader: cell_area ndims: 1
UGRIDDataReader: cell_area dimension: 1104967
UGRIDDataReader: reading constant var cell_area
MAIN: 
MAIN: -------------------------------------
MAIN: Time: 1/1:   2.740E-03
MAIN: -------------------------------------
MAIN: 
UpdateExport: -----------------------------
UpdateExport:  Update
UpdateExport: -----------------------------
XIOSOutputSolver: #########################
XIOSOutputSolver: Time step: 1d
XIOSOutputSolver: #########################
########## ########## ########## ########## ########## ########## ########## ##########
Execution Sum Up
########## ########## ########## ########## ########## ########## ########## ##########
Jobid     : 6162561
Jobname   : add_var_to_rst
User      : mathiotp
Account   : gen6035@rome
Limits    : time = 20:00 , memory/task = 1775 Mo
Date      : submit = 12/07/2022 17:38:58 , start = 12/07/2022 17:38:59 , end = 12/07/2022 17:58:59
Execution : partition = rome , QoS = normal , Comment = (null)
Resources : ntasks = 128 , cpus/task = 1 , ncpus = 128 , nodes = 1
   Nodes=irene4857 CPU_IDs=0-127 Mem=227200 GRES=
 
Memory / step 
--------------
                          Resident Size (Mo)                     Virtual Size (Go)
JobID            Max     (Node:Task)       AveTask    Max  (Node:Task)            AveTask
-----------      ------------------------  -------    --------------------------  -------
6162561.extern       0 (            :   0)       0      0.00 (            :   0)    0.00
6162561.batch       31 (irene4857   :   0)      17      0.00 (irene4857   :   0)    0.00

Accounting / step 
------------------

JobID           JobName                  Ntasks  Ncpus Nnodes  Layout       Elapsed               User         System     Eff  State
------------    ------------             ------  ----- ------  -------      -------               -------      ------     ---  -----
6162561         add_var_to_rst                -    128      1        -     00:00:55   (100%)            -            -      -  -
6162561.batch   batch                         1    128      1  Unknown     00:00:55   (100%)     00:00:00     00:00:00      0  RUNNING
6162561.extern  extern                        1    128      1  Unknown     00:00:55 (100.0%)     00:00:00     00:00:00      0  RUNNING
6162561.0       app.conf_cE5C3k              49    128      1   BBlock     00:00:19  (34.5%)     00:00:48     00:01:31    5.7  CANCELLED by 0
########## ########## ########## ########## ########## ########## ########## ##########
